@<TRIPOS>MOLECULE
DMC
 12 11 0 0 0
SMALL
GASTEIGER

@<TRIPOS>ATOM
      1 O           0.9240   -0.0637    0.0672 O.3     1  UNL1       -0.4371
      2 O           0.9767    0.3080    2.2341 O.3     1  UNL1       -0.4371
      3 O          -1.0660    0.1303    1.1982 O.2     1  UNL1       -0.2029
      4 C           0.1550    0.1254    1.1694 C.2     1  UNL1        0.5097
      5 C           0.1826   -0.2697   -1.1333 C.3     1  UNL1        0.0851
      6 C           0.2911    0.5197    3.4676 C.3     1  UNL1        0.0851
      7 H           0.8954   -0.4102   -1.9519 H       1  UNL1        0.0662
      8 H          -0.4345   -1.1703   -1.0568 H       1  UNL1        0.0662
      9 H          -0.4345    0.6049   -1.3614 H       1  UNL1        0.0662
     10 H          -0.3220    1.4248    3.4170 H       1  UNL1        0.0662
     11 H          -0.3220   -0.3505    3.7216 H       1  UNL1        0.0662
     12 H           1.0394    0.6546    4.2540 H       1  UNL1        0.0662
@<TRIPOS>BOND
     1     1     4    1
     2     1     5    1
     3     2     4    1
     4     2     6    1
     5     3     4    2
     6     5     7    1
     7     5     8    1
     8     5     9    1
     9     6    10    1
    10     6    11    1
    11     6    12    1
