@<TRIPOS>MOLECULE
UNL
    9    11     1     0     0
SMALL
bcc


@<TRIPOS>ATOM
      1 O            1.0900    -0.0450     0.3510 os         1 UNL      -0.357600
      2 C            2.2470    -0.0440    -0.0330 c3         1 UNL       0.495400
      3 C1           3.1390    -1.2270    -0.1320 c3         1 UNL       0.089400
      4 O1           4.3330    -0.6820    -0.6640 os         1 UNL      -0.380600
      5 C2           4.1650     0.6570    -0.8150 c3         1 UNL       0.681200
      6 O2           5.0250     1.4100    -1.2420 os         1 UNL      -0.380600
      7 O3           2.9290     1.0420    -0.4360 os         1 UNL      -0.380600
      8 H            2.7340    -1.9680    -0.8250 h1         1 UNL       0.116700
      9 H1           3.3390    -1.6530     0.8540 h1         1 UNL       0.116700
@<TRIPOS>BOND
     1     1     2 1   
     2     1     2 1   
     3     2     3 1   
     4     2     7 1   
     5     3     4 1   
     6     3     8 1   
     7     3     9 1   
     8     4     5 1   
     9     5     6 1   
    10     5     6 1   
    11     5     7 1   
@<TRIPOS>SUBSTRUCTURE
     1 UNL         1 TEMP              0 ****  ****    0 ROOT
