@<TRIPOS>MOLECULE
PC
13
0
0
0
0
SMALL

@<TRIPOS>ATOM
     1 O1     -0.0218    0.9508    0.0405 O1   1 PC -0.6452
     2 O2      0.7840   -1.1505    0.0333 O2   1 PC -0.4684
     3 O3      2.2453    0.6154   -0.0951 O3   1 PC -0.4684
     4 C1     -1.0961    0.0865    0.3926 C1   1 PC  1.0996
     5 C2     -0.6257   -1.2401   -0.1262 C2   1 PC  0.0330
     6 C3     -2.3928    0.5592   -0.2317 C3   1 PC  0.0330
     7 C4      1.1072    0.1787   -0.0134 C4   1 PC  0.0330
     8 H      -1.1805    0.0841    1.4860 H    1 PC  0.1041
     9 H      -1.0253   -2.0793    0.4501 H    1 PC  0.1041
    10 H      -0.8432   -1.3980   -1.1881 H    1 PC  0.1041
    11 H      -2.2992    0.6471   -1.3198 H    1 PC  0.1041
    12 H      -3.2155   -0.1244   -0.0025 H    1 PC  0.1041
    13 H      -2.6511    1.5567    0.1397 H    1 PC  0.1041
@<TRIPOS>BOND
