@<TRIPOS>MOLECULE
DMC
12
0
0
0
0
SMALL

@<TRIPOS>ATOM
     1 O2      0.9240   -0.0637    0.0672 O2   1 DMC -0.4684
     2 O3      0.9767    0.3080    2.2341 O3   1 DMC -0.4684
     3 O1     -1.0660    0.1303    1.1982 O1   1 DMC -0.6452
     4 C1      0.1550    0.1254    1.1694 C1   1 DMC  1.0996
     5 C2      0.1826   -0.2697   -1.1333 C2   1 DMC  0.0330
     6 C3      0.2911    0.5197    3.4676 C3   1 DMC  0.0330
     7 H       0.8954   -0.4102   -1.9519 H    1 DMC  0.1041
     8 H      -0.4345   -1.1703   -1.0568 H    1 DMC  0.1041
     9 H      -0.4345    0.6049   -1.3614 H    1 DMC  0.1041
    10 H      -0.3220    1.4248    3.4170 H    1 DMC  0.1041
    11 H      -0.3220   -0.3505    3.7216 H    1 DMC  0.1041
    12 H       1.0394    0.6546    4.2540 H    1 DMC  0.1041
@<TRIPOS>BOND
