@<TRIPOS>MOLECULE
EC
10
0
0
0
0
SMALL

@<TRIPOS>ATOM
1 E2O 0.6756 -1.0922 0.0955 O2 1 EC -0.4684
2 E3O 0.7550 1.1314 -0.0781 O3 1 EC -0.4684
3 E1O 2.7424 -0.2758 -0.4363 O1 1 EC -0.6545
4 E2C -0.6758 -0.7019 0.0148 C2 1 EC 0.0330
5 E3C -0.5868 0.7912 0.1319 C3 1 EC 0.0330
6 E1C 1.5350 -0.0310 -0.1760 C1 1 EC 1.0996
7 EXH -1.1170 -1.0385 -0.9611 H 1 EC 0.1041
8 EXH -1.2567 -1.1765 0.8315 H 1 EC 0.1041
9 EXH -0.8393 1.0668 1.1737 H 1 EC 0.1041
10 EXH -1.2325 1.3266 -0.5960 H 1 EC 0.1041
@<TRIPOS>BOND
