@<TRIPOS>MOLECULE
PC
13
0
0
0
0
SMALL

@<TRIPOS>ATOM
1 P2O 0.0930 0.8570 -0.5550 O2 1 PC -0.4684
2 P3O -0.4800 -1.1350 0.3190 O3 1 PC -0.4684
3 P1O -2.0560 0.5130 0.1520 O1 1 PC -0.6452
4 P2C 1.3010 0.1240 -0.4310 C2 1 PC 0.0330
5 P3C 0.8390 -1.2820 -0.1750 C3 1 PC 0.0330
6 P4C 2.1460 0.6960 0.6970 C4 1 PC 0.0330
7 P1C -0.9130 0.1150 -0.0140 C1 1 PC 1.0996
8 PXH 1.8610 0.1870 -1.3700 H 1 PC 0.1041
9 PXH 0.8050 -1.8750 -1.0950 H 1 PC 0.1041
10 PXH 1.4550 -1.8140 0.5560 H 1 PC 0.1041
11 PXH 3.0750 0.1300 0.8140 H 1 PC 0.1041
12 PXH 2.3990 1.7410 0.4890 H 1 PC 0.1041
13 PXH 1.6050 0.6840 1.6490 H 1 PC 0.1041
@<TRIPOS>BOND
